Circuit: * C:\Users\Jelon Dlow\Documents\GitHub\Practicum\Hardware\Sim\411 Schematic.asc

Direct Newton iteration for .op point succeeded.

Date: Wed Oct 26 21:50:50 2016
Total elapsed time: 0.055 seconds.

tnom = 27
temp = 27
method = modified trap
totiter = 2588
traniter = 2582
tranpoints = 1292
accept = 1228
rejected = 64
matrix size = 9
fillins = 0
solver = Normal
Matrix Compiler1: 278 bytes object code size  0.1/0.0/[0.0]
Matrix Compiler2: off  [0.0]/0.1/0.1


